LTspice 24.0.12 for Windows
Circuit: * C:\Users\spider\Desktop\Kirdy_laser_drv\sim\ADA4894 PD test driver.asc
Start Time: Sat May 31 23:32:49 2025
solver = Normal
Maximum thread count: 24
tnom = 27
temp = 27
method = modified trap
Direct Newton iteration failed to find .op point.  (Use ".option noopiter" to skip.)
Starting Gmin stepping
Gmin = 10
Gmin = 1.07374
vernier = 0.5
vernier = 0.25
vernier = 0.125
vernier = 0.0625
Gmin = 1.1391
vernier = 0.03125
vernier = 0.015625
Gmin = 1.08297
vernier = 0.0078125
Gmin = 1.05998
vernier = 0.0104167
vernier = 0.00520833
vernier = 0.00694444
vernier = 0.00347222
Gmin = 1.05219
vernier = 0.00462963
vernier = 0.00231481
Gmin = 1.04492
vernier = 0.00308642
vernier = 0.00154321
Gmin = 1.03989
vernier = 0.00205761
vernier = 0.00274348
Gmin = 1.03478
vernier = 0.00137174
vernier = 0.00182899
vernier = 0.000914493
Gmin = 1.03324
vernier = 0.00121932
vernier = 0.00162576
Gmin = 1.03023
vernier = 0.000812882
vernier = 0.00108384
Gmin = 1.02848
vernier = 0.000541921
vernier = 0.000722562
Gmin = 1.02723
vernier = 0.000963415
vernier = 0.000481708
Gmin = 1.02606
vernier = 0.000642277
vernier = 0.000856369
vernier = 0.000428184
Gmin = 1.02485
vernier = 0.000570912
vernier = 0.000761216
Gmin = 1.02345
vernier = 0.000570912
vernier = 0.000761216
vernier = 0.000570912
vernier = 0.000428184
Gmin = 1.02291
vernier = 0.000570912
vernier = 0.000428184
Gmin = 1.02204
vernier = 0.000570912
vernier = 0.000428184
vernier = 0.000570912
Gmin = 1.02113
vernier = 0.000428184
vernier = 0.000570912
vernier = 0.000428184
Gmin = 0
Gmin = 0
Gmin stepping failed

Starting source stepping with srcstepmethod=0
Source Step = 3.0303%
Source Step = 33.3333%
Source Step = 63.6364%
Source Step = 93.9394%
Source stepping succeeded in finding the operating point.

Total elapsed time: 0.773 seconds.

