LTspice 24.0.12 for Windows
Circuit: * C:\Users\spider\Desktop\Kirdy_laser_drv\sim\Modulator sim.asc
Start Time: Mon Jun  2 00:52:10 2025
solver = Normal
Maximum thread count: 24
tnom = 27
temp = 27
method = modified trap
WARNING: Less than two connections to node n002.  This node is used by r5.
Direct Newton iteration failed to find .op point.  (Use ".option noopiter" to skip.)
Starting Gmin stepping
Gmin = 10
Gmin = 1.07374
vernier = 0.5
vernier = 0.25
vernier = 0.125
vernier = 0.0625
Gmin = 1.10559
vernier = 0.03125
vernier = 0.015625
Gmin = 1.06752
vernier = 0.0078125
vernier = 0.0104167
vernier = 0.00520833
Gmin = 1.05304
vernier = 0.00694444
vernier = 0.00347222
Gmin = 1.04349
vernier = 0.00462963
vernier = 0.00231481
Gmin = 1.03748
vernier = 0.00308642
vernier = 0.00154321
Gmin = 1.03308
vernier = 0.00205761
vernier = 0.00102881
Gmin = 1.0299
vernier = 0.00137174
vernier = 0.00182899
vernier = 0.000914493
Gmin = 1.02728
vernier = 0.00121932
vernier = 0.000609662
Gmin = 1.02541
vernier = 0.000812882
vernier = 0.00108384
Gmin = 1.02341
vernier = 0.000541921
vernier = 0.000722562
Gmin = 1.02226
vernier = 0.000963415
vernier = 0.000481708
vernier = 0.000642277
Gmin = 1.02111
vernier = 0.000481708
vernier = 0.000642277
Gmin = 1.02
vernier = 0.000481707
vernier = 0.000642276
vernier = 0.000481707
Gmin = 1.01931
vernier = 0.000642276
vernier = 0.000481707
Gmin = 0
Gmin stepping failed

Starting source stepping with srcstepmethod=0
Source Step = 3.0303%
Source Step = 9.84848%
Source Step = 17.4242%
Source Step = 25%
Source Step = 32.5758%
Source Step = 40.1515%
vernier = 0.375
Source Step = 50.7576%
Source Step = 62.1212%
Source Step = 73.4848%
Source Step = 84.8485%
Source Step = 96.2121%
vernier = 0.5625
Source stepping succeeded in finding the operating point.

Total elapsed time: 0.689 seconds.

